CANA_VOLG_Curr_Seq.Txt

SYMMETRICAL COMPONENT CURRENTS BY CIRCUIT ELEMENT (first 3 phases)

Element                Term      I1         I2         %I2/I1    I0         %I0/I1   %Normal %Emergency

"VSOURCE.SOURCE" .....   1         305   1.3816E-007     0.00  1.0081E-009     0.00      0.00     0.00
   -                     2         305   1.3816E-007     0.00  1.0081E-009     0.00      0.00     0.00
"LINE.LINE_0_1" ......   1         305   1.3661E-007     0.00  5.8983E-009     0.00     85.43    56.96
   -                     2         305   1.3706E-007     0.00  2.5328E-009     0.00      0.00     0.00
"LINE.LINE_1_2" ......   1       304.7   1.3549E-007     0.00  4.3128E-009     0.00     85.35    56.90
   -                     2       304.7   1.372E-007     0.00  2.2607E-009     0.00      0.00     0.00
"LINE.LINE_2_3" ......   1       0.513   1.6703E-009     0.00  2.4246E-009     0.00      0.14     0.10
   -                     2     0.51301   8.1653E-010     0.00  1.4577E-009     0.00      0.00     0.00
"LINE.LINE_4_5" ......   1      5.5579   2.5716E-009     0.00  3.6609E-010     0.00      0.91     0.61
   -                     2      5.5579   2.525E-009     0.00  2.0179E-011     0.00      0.00     0.00
"LINE.LINE_4_6" ......   1      5.5579   2.5875E-009     0.00  3.0308E-010     0.00      0.91     0.61
   -                     2      5.5579   2.5405E-009     0.00  7.9929E-011     0.00      0.00     0.00
"LINE.LINE_4_7" ......   1      1674.3   7.5594E-007     0.00  7.4155E-010     0.00    274.47   182.98
   -                     2      1674.3   7.5601E-007     0.00  8.6855E-010     0.00      0.00     0.00
"LINE.LINE_7_10" .....   1      1674.3   7.5648E-007     0.00  1.2594E-009     0.00    274.47   182.98
   -                     2      1674.3   7.5662E-007     0.00  9.9182E-010     0.00      0.00     0.00
"LINE.LINE_10_11" ....   1      2.9211   8.5192E-010     0.00  6.074E-010     0.00      0.99     0.66
   -                     2      2.9211   9.6145E-010     0.00  3.8307E-010     0.00      0.00     0.00
"LINE.LINE_10_12" ....   1      601.92    2.73E-007     0.00  4.198E-010     0.00     98.68    65.78
   -                     2      601.92   2.7273E-007     0.00  5.5055E-010     0.00      0.00     0.00
"LINE.LINE_12_13" ....   1      17.041   8.2377E-009     0.00  4.0514E-010     0.00      5.76     3.84
   -                     2      17.041   7.7088E-009     0.00  2.3196E-010     0.00      0.00     0.00
"LINE.LINE_12_14" ....   1      584.88   2.6449E-007     0.00  8.6712E-011     0.00     95.88    63.92
   -                     2      584.88   2.6432E-007     0.00  6.1261E-010     0.00      0.00     0.00
"LINE.LINE_14_15" ....   1      34.281   1.5532E-008     0.00  3.2927E-010     0.00     11.58     7.72
   -                     2      34.281   1.5501E-008     0.00  2.6244E-010     0.00      0.00     0.00
"LINE.LINE_14_16" ....   1      667.97   3.0328E-007     0.00  1.5521E-010     0.00    169.11   112.74
   -                     2      667.97   3.0334E-007     0.00  2.4277E-010     0.00      0.00     0.00
"LINE.LINE_14_41" ....   1      117.36   5.3642E-008     0.00  7.1554E-010     0.00     19.24    12.83
   -                     2      117.36   5.3585E-008     0.00  8.5352E-010     0.00      0.00     0.00
"LINE.LINE_16_17" ....   1      27.758   1.2492E-008     0.00  1.7354E-010     0.00      9.38     6.25
   -                     2      27.758   1.2337E-008     0.00  2.2543E-010     0.00      0.00     0.00
"LINE.LINE_16_18" ....   1      640.21   2.9089E-007     0.00  4.6561E-010     0.00    162.08   108.05
   -                     2      640.21   2.9069E-007     0.00  4.8999E-010     0.00      0.00     0.00
"LINE.LINE_18_19" ....   1        26.3   1.2262E-008     0.00  6.3999E-010     0.00      8.89     5.92
   -                     2        26.3   1.1804E-008     0.00  3.3802E-010     0.00      0.00     0.00
"LINE.LINE_18_20" ....   1      613.91   2.7924E-007     0.00  3.292E-010     0.00    155.42   103.61
   -                     2      613.91   2.7894E-007     0.00  5.3232E-010     0.00      0.00     0.00
"LINE.LINE_20_21" ....   1      19.483   9.2413E-009     0.00  7.6437E-010     0.00      6.58     4.39
   -                     2      19.483   8.9557E-009     0.00  6.3612E-010     0.00      0.00     0.00
"LINE.LINE_20_22" ....   1      594.42   2.6958E-007     0.00  7.7563E-011     0.00    150.49   100.32
   -                     2      594.42   2.6954E-007     0.00  3.1044E-010     0.00      0.00     0.00
"LINE.LINE_22_23" ....   1      57.969   2.6796E-008     0.00  6.9417E-010     0.00     14.68     9.78
   -                     2      57.969   2.6861E-008     0.00  3.1546E-010     0.00      0.00     0.00
"LINE.LINE_22_24" ....   1      536.45    2.43E-007     0.00  3.4702E-010     0.00    135.81    90.54
   -                     2      536.45    2.43E-007     0.00  5.2244E-010     0.00      0.00     0.00
"LINE.LINE_24_25" ....   1      27.769   1.1868E-008     0.00  3.8805E-010     0.00      9.38     6.25
   -                     2      27.769   1.1616E-008     0.00  5.0895E-010     0.00      0.00     0.00
"LINE.LINE_24_26" ....   1      312.77   1.415E-007     0.00  6.0619E-010     0.00     79.18    52.79
   -                     2      312.77   1.4141E-007     0.00  5.9247E-010     0.00      0.00     0.00
"LINE.LINE_26_27" ....   1      36.053   1.6312E-008     0.00  6.4585E-010     0.00      9.13     6.08
   -                     2      36.053   1.6453E-008     0.00  8.105E-010     0.00      0.00     0.00
"LINE.LINE_26_28" ....   1      276.71   1.264E-007     0.00  1.1518E-009     0.00     70.05    46.70
   -                     2      276.71   1.2657E-007     0.00  1.3238E-009     0.00      0.00     0.00
"LINE.LINE_28_29" ....   1      16.663   6.9435E-009     0.00  3.5776E-010     0.00      4.22     2.81
   -                     2      16.663   6.9831E-009     0.00  5.9396E-010     0.00      0.00     0.00
"LINE.LINE_28_30" ....   1      260.05   1.1778E-007     0.00  1.469E-009     0.00     65.84    43.89
   -                     2      260.05   1.1793E-007     0.00  1.091E-009     0.00      0.00     0.00
"LINE.LINE_30_31" ....   1      16.566   8.1149E-009     0.00  3.8999E-010     0.00     10.35     6.90
   -                     2      16.566   8.1145E-009     0.00  4.0694E-010     0.00      0.00     0.00
"LINE.LINE_30_32" ....   1      243.49   1.1098E-007     0.00  1.2326E-009     0.00     61.64    41.09
   -                     2      243.49   1.1113E-007     0.00  7.0081E-010     0.00      0.00     0.00
"LINE.LINE_32_33" ....   1      44.926   1.915E-008     0.00  6.317E-010     0.00     15.18    10.12
   -                     2      44.926   1.9652E-008     0.00  1.0055E-009     0.00      0.00     0.00
"LINE.LINE_32_35" ....   1      198.56   8.9739E-008     0.00  5.2208E-010     0.00     50.27    33.51
   -                     2      198.56   8.9885E-008     0.00  2.8525E-010     0.00      0.00     0.00
"LINE.LINE_33_34" ....   1      25.338   1.1005E-008     0.00  6.4585E-010     0.00      8.56     5.71
   -                     2      25.338   1.1556E-008     0.00  7.8094E-010     0.00      0.00     0.00
"LINE.LINE_35_36" ....   1       82.35   3.7668E-008     0.00  3.6609E-010     0.00     20.85    13.90
   -                     2       82.35   3.7659E-008     0.00  4.2258E-010     0.00      0.00     0.00
"LINE.LINE_35_37" ....   1      116.21   5.2811E-008     0.00  9.4498E-010     0.00     29.42    19.61
   -                     2      116.21   5.2697E-008     0.00  8.1652E-010     0.00      0.00     0.00
"LINE.LINE_37_38" ....   1      41.419   1.9111E-008     0.00  8.6772E-011     0.00     13.99     9.33
   -                     2      41.419   1.9157E-008     0.00  3.4586E-010     0.00      0.00     0.00
"LINE.LINE_37_39" ....   1      21.538   9.4449E-009     0.00  1.3991E-010     0.00      7.28     4.85
   -                     2      21.538   9.6148E-009     0.00  3.6397E-010     0.00      0.00     0.00
"LINE.LINE_37_40" ....   1      84.301   3.7759E-008     0.00  3.5776E-010     0.00     21.34    14.23
   -                     2      84.301   3.7996E-008     0.00  1.9644E-010     0.00      0.00     0.00
"LINE.LINE_41_42" ....   1      67.684   3.1376E-008     0.00  8.2956E-010     0.00     22.87    15.24
   -                     2      67.684   3.1504E-008     0.00  8.8591E-010     0.00      0.00     0.00
"LINE.LINE_41_43" ....   1       884.4   4.0113E-007     0.00  6.777E-010     0.00    144.98    96.66
   -                     2       884.4   4.011E-007     0.00  6.202E-010     0.00      0.00     0.00
"LINE.LINE_43_44" ....   1      18.506   8.0542E-009     0.00  5.4879E-010     0.00      7.23     4.82
   -                     2      18.506   8.0955E-009     0.00  6.5264E-010     0.00      0.00     0.00
"LINE.LINE_43_45" ....   1      855.18   3.8836E-007     0.00  7.9895E-010     0.00    140.19    93.46
   -                     2      855.18   3.8825E-007     0.00  7.068E-010     0.00      0.00     0.00
"LINE.LINE_45_46" ....   1      10.714   5.3324E-009     0.00  7.0279E-010     0.00      3.62     2.41
   -                     2      10.714   5.2292E-009     0.00  4.6994E-010     0.00      0.00     0.00
"LINE.LINE_45_47" ....   1      855.18   3.8966E-007     0.00   1.13E-009     0.00    140.19    93.46
   -                     2      855.18   3.8941E-007     0.00  8.0532E-010     0.00      0.00     0.00
"LINE.LINE_47_48" ....   1      13.055   6.1465E-009     0.00  4.1794E-010     0.00      4.41     2.94
   -                     2      13.055   5.8949E-009     0.00  5.3491E-010     0.00      0.00     0.00
"LINE.LINE_47_49" ....   1      70.635   3.1714E-008     0.00  3.8805E-010     0.00     44.15    29.43
   -                     2      70.635   3.1463E-008     0.00  3.252E-010     0.00      0.00     0.00
"LINE.LINE_47_52" ....   1      771.49   3.4953E-007     0.00  2.1311E-009     0.00    126.47    84.32
   -                     2      771.49   3.4902E-007     0.00  2.6415E-009     0.00      0.00     0.00
"LINE.LINE_49_50" ....   1      28.741   1.3773E-008     0.00  3.9574E-010     0.00     17.96    11.98
   -                     2      28.741   1.3585E-008     0.00  5.2609E-010     0.00      0.00     0.00
"LINE.LINE_49_51" ....   1      41.894   1.9031E-008     0.00  3.8805E-010     0.00     26.18    17.46
   -                     2      41.894   1.8786E-008     0.00   7.36E-010     0.00      0.00     0.00
"LINE.LINE_52_53" ....   1      67.233   3.0714E-008     0.00  3.8218E-010     0.00     42.02    28.01
   -                     2      67.233    3.03E-008     0.00  6.8129E-010     0.00      0.00     0.00
"LINE.LINE_52_54" ....   1      403.84   1.819E-007     0.00  1.0245E-009     0.00     66.20    44.14
   -                     2      403.84   1.8171E-007     0.00  7.5129E-010     0.00      0.00     0.00
"LINE.LINE_54_55" ....   1      161.47   7.1937E-008     0.00  4.5419E-010     0.00     54.55    36.37
   -                     2      161.47   7.2382E-008     0.00  7.0997E-010     0.00      0.00     0.00
"LINE.LINE_54_58" ....   1      242.37   1.102E-007     0.00  4.3386E-010     0.00     39.73    26.49
   -                     2      242.37   1.1036E-007     0.00  1.6151E-010     0.00      0.00     0.00
"LINE.LINE_55_56" ....   1      18.515   7.3991E-009     0.00  4.1974E-010     0.00     11.57     7.71
   -                     2      18.515   7.9157E-009     0.00  6.2394E-010     0.00      0.00     0.00
"LINE.LINE_55_57" ....   1       50.38   2.3018E-008     0.00  3.8998E-010     0.00     17.02    11.35
   -                     2       50.38   2.3314E-008     0.00  4.1414E-010     0.00      0.00     0.00
"LINE.LINE_58_59" ....   1      242.27   1.1128E-007     0.00  1.3177E-009     0.00     61.33    40.89
   -                     2      242.27   1.1143E-007     0.00  1.1859E-009     0.00      0.00     0.00
"LINE.LINE_58_65" ....   1     0.16162   1.0955E-009     0.00  1.6686E-009     0.00      0.04     0.03
   -                     2     0.16162   9.8018E-010     0.00  1.6539E-009     0.00      0.00     0.00
"LINE.LINE_59_60" ....   1      74.649   3.3868E-008     0.00  4.125E-010     0.00     25.22    16.81
   -                     2      74.649   3.4376E-008     0.00  5.065E-010     0.00      0.00     0.00
"LINE.LINE_59_62" ....   1      167.62   7.6925E-008     0.00  1.8089E-009     0.00     42.43    28.29
   -                     2      167.62   7.7221E-008     0.00  1.8203E-009     0.00      0.00     0.00
"LINE.LINE_60_61" ....   1      31.185   1.3521E-008     0.00  3.5776E-010     0.00     10.54     7.02
   -                     2      31.185   1.395E-008     0.00  4.6806E-010     0.00      0.00     0.00
"LINE.LINE_62_63" ....   1      124.74   5.715E-008     0.00  1.608E-009     0.00     77.96    51.97
   -                     2      124.74   5.7148E-008     0.00  1.4232E-009     0.00      0.00     0.00
"LINE.LINE_63_64" ....   1        26.8   1.1514E-008     0.00  6.5968E-010     0.00     16.75    11.17
   -                     2        26.8   1.1663E-008     0.00  1.0929E-009     0.00      0.00     0.00
"LINE.LINE_65_66" ....   1      65.096   2.9109E-008     0.00  1.0449E-009     0.00     16.48    10.99
   -                     2      65.096   2.8991E-008     0.00  8.9766E-010     0.00      0.00     0.00
"LINE.LINE_65_68" ....   1      64.995   2.8259E-008     0.00  1.4358E-009     0.00     16.45    10.97
   -                     2      64.995   2.8376E-008     0.00  1.4975E-009     0.00      0.00     0.00
"LINE.LINE_66_67" ....   1      34.205   1.4896E-008     0.00  4.7999E-010     0.00      8.66     5.77
   -                     2      34.205   1.5042E-008     0.00  4.6887E-010     0.00      0.00     0.00
"LINE.LINE_68_69" ....   1      19.977   9.0198E-009     0.00  4.6727E-010     0.00      6.75     4.50
   -                     2      19.977   8.9683E-009     0.00  3.6783E-010     0.00      0.00     0.00
"LINE.LINE_68_70" ....   1      84.972    3.77E-008     0.00  1.2055E-009     0.00     21.51    14.34
   -                     2      84.972   3.7555E-008     0.00  8.3212E-010     0.00      0.00     0.00
"LINE.LINE_70_71" ....   1      57.103   2.5576E-008     0.00  5.4465E-010     0.00     14.46     9.64
   -                     2      57.103   2.5874E-008     0.00  3.3341E-010     0.00      0.00     0.00
"LINE.LINE_70_72" ....   1      44.338   2.0168E-008     0.00  8.5106E-010     0.00     14.98     9.99
   -                     2      44.338   2.0055E-008     0.00  6.4425E-010     0.00      0.00     0.00
"LINE.LINE_70_73" ....   1      309.93   1.4373E-007     0.00  6.3646E-010     0.00     78.46    52.31
   -                     2      309.93   1.4388E-007     0.00  2.5969E-010     0.00      0.00     0.00
"LINE.LINE_73_74" ....   1       35.57   1.6031E-008     0.00  3.1286E-010     0.00     12.02     8.01
   -                     2       35.57   1.6174E-008     0.00  2.8145E-010     0.00      0.00     0.00
"LINE.LINE_73_75" ....   1      274.36   1.2725E-007     0.00  9.7936E-010     0.00     69.46    46.30
   -                     2      274.36   1.2745E-007     0.00  1.5313E-009     0.00      0.00     0.00
"LINE.LINE_75_76" ....   1       224.3   1.0427E-007     0.00  1.0927E-009     0.00     56.79    37.86
   -                     2       224.3   1.0468E-007     0.00  1.642E-009     0.00      0.00     0.00
"LINE.LINE_75_80" ....   1       50.06   2.2171E-008     0.00  9.3858E-010     0.00     16.91    11.27
   -                     2       50.06   2.2353E-008     0.00  4.037E-010     0.00      0.00     0.00
"LINE.LINE_76_77" ....   1      51.848   2.2919E-008     0.00  5.2781E-010     0.00     17.52    11.68
   -                     2      51.848   2.3504E-008     0.00  2.7884E-010     0.00      0.00     0.00
"LINE.LINE_76_79" ....   1      44.026   2.2772E-008     0.00  2.4848E-010     0.00     14.87     9.92
   -                     2      44.026   2.3402E-008     0.00  7.3261E-010     0.00      0.00     0.00
"LINE.LINE_77_78" ....   1      51.848   2.3034E-008     0.00  6.2209E-010     0.00     17.52    11.68
   -                     2      51.848   2.3424E-008     0.00  3.5335E-010     0.00      0.00     0.00
"LINE.LINE_80_81" ....   1      20.466   9.2474E-009     0.00  1.0449E-009     0.00      6.91     4.61
   -                     2      20.466   9.601E-009     0.00  6.213E-010     0.00      0.00     0.00
"LINE.LINE_80_82" ....   1      29.596   1.2502E-008     0.00  1.608E-009     0.00     10.00     6.67
   -                     2      29.596   1.2814E-008     0.00  1.1641E-009     0.00      0.00     0.00
"LINE.LINE_82_83" ....   1      29.596   1.218E-008     0.00  1.3177E-009     0.00     10.00     6.67
   -                     2      29.596   1.2562E-008     0.00  1.0227E-009     0.00      0.00     0.00
"LINE.LINE_82_84" ....   1      16.929   6.2871E-009     0.00  1.2179E-009     0.00      5.72     3.81
   -                     2      16.929   6.2928E-009     0.00  1.2874E-009     0.00      0.00     0.00
"LINE.LINE_84_85" ....   1      11.695   4.8791E-009     0.00  6.5049E-010     0.00      3.95     2.63
   -                     2      11.695   5.0297E-009     0.00  7.3407E-010     0.00      0.00     0.00
"LINE.LINE_84_86" ....   1      31.186   1.4037E-008     0.00  2.825E-010     0.00     10.54     7.02
   -                     2      31.186   1.4189E-008     0.00  5.036E-010     0.00      0.00     0.00
"LINE.LINE_10_41" ....   1      1069.4   4.8354E-007     0.00  6.8657E-010     0.00    175.32   116.88
   -                     2      1069.4   4.8352E-007     0.00  1.0597E-009     0.00      0.00     0.00
"LINE.LINE_24_52" ....   1      195.92   8.9191E-008     0.00  1.1641E-009     0.00     32.12    21.41
   -                     2      195.92   8.8741E-008     0.00  1.3506E-009     0.00      0.00     0.00
"LINE.LINE_52_70" ....   1      496.34   2.2632E-007     0.00  1.2568E-009     0.00     81.37    54.24
   -                     2      496.34   2.2613E-007     0.00  8.3398E-010     0.00      0.00     0.00
"LINE.LINE_37_63" ....   1      31.049   1.2932E-008     0.00  1.203E-009     0.00      5.09     3.39
   -                     2      31.049   1.2983E-008     0.00  1.4795E-009     0.00      0.00     0.00
"LINE.LINE_63_84" ....   1      25.961   1.343E-008     0.00  9.5448E-010     0.00      4.26     2.84
   -                     2      25.961   1.3283E-008     0.00  1.1855E-009     0.00      0.00     0.00
"TRANSFORMER.HOMS" ...   1     0.71823   3.5181E-010     0.00  3.4125E-014     0.00      1.11     0.82
   -                     2  5.9602E-013   2.0453E-013    34.32  1.8661E-013    31.31      0.00     0.00
"TRANSFORMER.UMED" ...   1     0.51301   2.5126E-010     0.00  1.8902E-014     0.00      1.11     0.82
   -                     2  4.5987E-013   8.6713E-014    18.86  7.8124E-014    16.99      0.00     0.00
"TRANSFORMER.VOLG" ...   1      304.49   1.3686E-007     0.00  1.0752E-013     0.00     89.41    65.57
   -                     2      1677.9   7.5715E-007     0.00  4.4243E-010     0.00      0.00     0.00
"TRANSFORMER.VOLG_102"   1      5.5579   2.886E-009     0.00  1.1775E-010     0.00      1.09     0.80
   -                     2  2.9427E-011   3.3324E-011   113.24  1.4552E-011    49.45      0.00     0.00
"TRANSFORMER.VOLG_103"   1      5.5579   2.8866E-009     0.00  1.1776E-010     0.00      1.09     0.80
   -                     2  1.3948E-011   1.6614E-011   119.12  9.7013E-012    69.56      0.00     0.00
"TRANSFORMER.TRT_1" ..   1      2.9211   1.3236E-009     0.00  9.0265E-013     0.00     76.47    56.08
   -                     2      151.24   6.8501E-008     0.00  9.8967E-014     0.00      0.00     0.00
"TRANSFORMER.TRT_2" ..   1      17.041   7.7219E-009     0.00  5.2639E-012     0.00     76.48    56.09
   -                     2      882.34   3.9963E-007     0.00  4.5829E-013     0.00      0.00     0.00
"TRANSFORMER.TRT_3" ..   1      34.281   1.5534E-008     0.00  1.0619E-011     0.00     76.49    56.09
   -                     2      1774.9   8.039E-007     0.00  1.7511E-012     0.00      0.00     0.00
"TRANSFORMER.TRT_4" ..   1      27.758   1.2578E-008     0.00  8.5951E-012     0.00     76.50    56.10
   -                     2      1437.2   6.5095E-007     0.00  1.3842E-012     0.00      0.00     0.00
"TRANSFORMER.TRT_5" ..   1        26.3   1.1917E-008     0.00  8.0874E-012     0.00     76.50    56.10
   -                     2      1361.7   6.1675E-007     0.00  8.8974E-013     0.00      0.00     0.00
"TRANSFORMER.TRT_6" ..   1      19.483   8.8285E-009     0.00  5.9801E-012     0.00     76.51    56.11
   -                     2      1008.8   4.569E-007     0.00  1.1995E-012     0.00      0.00     0.00
"TRANSFORMER.TRT_7" ..   1      57.969   2.6268E-008     0.00  1.795E-011     0.00     76.52    56.11
   -                     2      3001.5   1.3594E-006     0.00  4.8247E-012     0.00      0.00     0.00
"TRANSFORMER.TRT_8" ..   1      27.769   1.2583E-008     0.00  8.5448E-012     0.00     76.53    56.12
   -                     2      1437.8   6.512E-007     0.00  4.6874E-013     0.00      0.00     0.00
"TRANSFORMER.TRT_9" ..   1      36.053   1.6337E-008     0.00  1.1172E-011     0.00     76.53    56.12
   -                     2      1866.7   8.4546E-007     0.00  1.0295E-012     0.00      0.00     0.00
"TRANSFORMER.TRT_10" .   1      16.663   7.5505E-009     0.00  5.2031E-012     0.00     76.53    56.12
   -                     2      862.76   3.9076E-007     0.00  2.6813E-013     0.00      0.00     0.00
"TRANSFORMER.TRT_11" .   1      16.566   7.5067E-009     0.00  5.204E-012     0.00     76.54    56.13
   -                     2      857.75   3.8849E-007     0.00  4.0694E-013     0.00      0.00     0.00
"TRANSFORMER.TRT_12" .   1      19.588   8.8759E-009     0.00  6.1691E-012     0.00     76.54    56.13
   -                     2      1014.2   4.5935E-007     0.00  2.3437E-013     0.00      0.00     0.00
"TRANSFORMER.TRT_13" .   1      25.338   1.1481E-008     0.00  7.9708E-012     0.00     76.54    56.13
   -                     2      1311.9   5.9418E-007     0.00  9.6801E-013     0.00      0.00     0.00
"TRANSFORMER.TRT_14" .   1       82.35   3.7315E-008     0.00  2.5821E-011     0.00     76.54    56.13
   -                     2      4263.9   1.9312E-006     0.00  3.1588E-012     0.00      0.00     0.00
"TRANSFORMER.TRT_15" .   1      41.419   1.8768E-008     0.00  1.3084E-011     0.00     76.54    56.13
   -                     2      2144.6   9.7131E-007     0.00  8.1387E-013     0.00      0.00     0.00
"TRANSFORMER.TRT_16" .   1      21.538   9.7595E-009     0.00  6.786E-012     0.00     76.54    56.13
   -                     2      1115.2   5.0508E-007     0.00  8.0439E-013     0.00      0.00     0.00
"TRANSFORMER.TRT_17" .   1      84.301   3.8199E-008     0.00  2.6537E-011     0.00     76.54    56.13
   -                     2      4364.9   1.9769E-006     0.00  9.3749E-013     0.00      0.00     0.00
"TRANSFORMER.TRT_18" .   1      67.684   3.067E-008     0.00  2.0787E-011     0.00     76.49    56.09
   -                     2      3504.4   1.5872E-006     0.00  2.3327E-012     0.00      0.00     0.00
"TRANSFORMER.TRT_19" .   1      18.506   8.3856E-009     0.00  5.6901E-012     0.00     76.50    56.10
   -                     2      958.18   4.3397E-007     0.00  1.6573E-013     0.00      0.00     0.00
"TRANSFORMER.TRT_20" .   1      10.714   4.8548E-009     0.00  3.285E-012     0.00     76.50    56.10
   -                     2      554.73   2.5125E-007     0.00  7.9897E-013     0.00      0.00     0.00
"TRANSFORMER.TRT_21" .   1      13.055   5.9157E-009     0.00  3.9711E-012     0.00     76.52    56.11
   -                     2      675.95   3.0615E-007     0.00  5.6415E-013     0.00      0.00     0.00
"TRANSFORMER.TRT_22" .   1      28.741   1.3023E-008     0.00  8.702E-012     0.00     76.52    56.11
   -                     2      1488.1    6.74E-007     0.00  7.5839E-013     0.00      0.00     0.00
"TRANSFORMER.TRT_23" .   1      41.894   1.8983E-008     0.00  1.2753E-011     0.00     76.52    56.11
   -                     2      2169.1   9.8243E-007     0.00  9.1657E-013     0.00      0.00     0.00
"TRANSFORMER.TRT_24" .   1      67.233   3.0465E-008     0.00  2.0589E-011     0.00     76.53    56.12
   -                     2      3481.1   1.5766E-006     0.00  2.1868E-012     0.00      0.00     0.00
"TRANSFORMER.TRT_25" .   1      92.574   4.1948E-008     0.00  2.7932E-011     0.00     76.54    56.13
   -                     2      4793.2   2.1709E-006     0.00  1.875E-012     0.00      0.00     0.00
"TRANSFORMER.TRT_26" .   1      18.515   8.3897E-009     0.00  5.601E-012     0.00     76.54    56.13
   -                     2      958.64   4.3418E-007     0.00  6.5432E-013     0.00      0.00     0.00
"TRANSFORMER.TRT_27" .   1       50.38   2.2829E-008     0.00  1.5228E-011     0.00     76.54    56.13
   -                     2      2608.5   1.1815E-006     0.00  1.4953E-012     0.00      0.00     0.00
"TRANSFORMER.TRT_28" .   1      43.464   1.9695E-008     0.00  1.3253E-011     0.00     76.54    56.13
   -                     2      2250.4   1.0193E-006     0.00  2.755E-012     0.00      0.00     0.00
"TRANSFORMER.TRT_29" .   1      31.185   1.4131E-008     0.00  9.5395E-012     0.00     76.54    56.13
   -                     2      1614.7   7.3131E-007     0.00  1.7204E-012     0.00      0.00     0.00
"TRANSFORMER.TRT_30" .   1       42.88   1.943E-008     0.00  1.3331E-011     0.00     76.54    56.13
   -                     2      2220.2   1.0056E-006     0.00  1.5763E-012     0.00      0.00     0.00
"TRANSFORMER.TRT_31" .   1      40.931   1.8547E-008     0.00  1.2817E-011     0.00     76.54    56.13
   -                     2      2119.3   9.5987E-007     0.00  1.438E-012     0.00      0.00     0.00
"TRANSFORMER.TRT_32" .   1        26.8   1.2144E-008     0.00  8.3548E-012     0.00     76.54    56.13
   -                     2      1387.7   6.2849E-007     0.00  1.2165E-012     0.00      0.00     0.00
"TRANSFORMER.TRT_33" .   1      30.891   1.3998E-008     0.00  9.2504E-012     0.00     76.54    56.13
   -                     2      1599.5   7.2442E-007     0.00  1.6287E-012     0.00      0.00     0.00
"TRANSFORMER.TRT_34" .   1      34.205   1.5499E-008     0.00  1.0207E-011     0.00     76.54    56.13
   -                     2        1771   8.0212E-007     0.00  1.4211E-012     0.00      0.00     0.00
"TRANSFORMER.TRT_35" .   1      19.977   9.052E-009     0.00  6.0687E-012     0.00     76.54    56.13
   -                     2      1034.3   4.6846E-007     0.00  1.2518E-012     0.00      0.00     0.00
"TRANSFORMER.TRT_36" .   1      57.103   2.5875E-008     0.00  1.7231E-011     0.00     76.53    56.13
   -                     2      2956.6   1.3391E-006     0.00  1.2085E-012     0.00      0.00     0.00
"TRANSFORMER.TRT_37" .   1      44.338   2.0091E-008     0.00  1.344E-011     0.00     76.53    56.13
   -                     2      2295.7   1.0397E-006     0.00  2.3982E-012     0.00      0.00     0.00
"TRANSFORMER.TRT_38" .   1       35.57   1.6118E-008     0.00  1.0789E-011     0.00     76.54    56.13
   -                     2      1841.7   8.3413E-007     0.00  1.6573E-012     0.00      0.00     0.00
"TRANSFORMER.TRT_39" .   1      128.45   5.8204E-008     0.00  3.8238E-011     0.00     76.54    56.13
   -                     2      6650.7   3.0122E-006     0.00  7.734E-012     0.00      0.00     0.00
"TRANSFORMER.TRT_40" .   1      51.848   2.3494E-008     0.00  1.5383E-011     0.00     76.55    56.13
   -                     2      2684.6   1.2159E-006     0.00  1.2962E-012     0.00      0.00     0.00
"TRANSFORMER.TRT_41" .   1      44.026   2.3023E-008     0.00  8.2207E-012     0.00    121.33    88.97
   -                     2      2282.6   1.1105E-006     0.00  1.0295E-012     0.00      0.00     0.00
"TRANSFORMER.TRT_42" .   1      20.466   9.2736E-009     0.00  6.189E-012     0.00     76.54    56.13
   -                     2      1059.7   4.7993E-007     0.00  1.3394E-012     0.00      0.00     0.00
"TRANSFORMER.TRT_43" .   1      12.669   5.7408E-009     0.00  3.8995E-012     0.00     76.54    56.13
   -                     2      655.98   2.971E-007     0.00  6.2592E-013     0.00      0.00     0.00
"TRANSFORMER.TRT_44" .   1      11.695   5.2993E-009     0.00  3.6427E-012     0.00     76.54    56.13
   -                     2      605.52   2.7425E-007     0.00  2.7992E-013     0.00      0.00     0.00
"TRANSFORMER.TRT_45" .   1      31.186   1.4131E-008     0.00  9.6604E-012     0.00     76.54    56.13
   -                     2      1614.7   7.3134E-007     0.00  7.4115E-013     0.00      0.00     0.00
"LOAD.LOAD_LV_TRT1" ..   1      151.25   6.8502E-008     0.00  1.2809E-014     0.00      0.00     0.00
"LOAD.LOAD_LV_TRT2" ..   1       882.4   3.9964E-007     0.00  1.2711E-013     0.00      0.00     0.00
"LOAD.LOAD_LV_TRT3" ..   1      1775.1   8.0392E-007     0.00  3.0611E-013     0.00      0.00     0.00
"LOAD.LOAD_LV_TRT4" ..   1      1437.3   6.5097E-007     0.00  2.0495E-013     0.00      0.00     0.00
"LOAD.LOAD_LV_TRT5" ..   1      1361.8   6.1677E-007     0.00  1.7053E-013     0.00      0.00     0.00
"LOAD.LOAD_LV_TRT6" ..   1      1008.9   4.5691E-007     0.00  8.0389E-014     0.00      0.00     0.00
"LOAD.LOAD_LV_TRT7" ..   1      3001.7   1.3594E-006     0.00  4.099E-013     0.00      0.00     0.00
"LOAD.LOAD_LV_TRT8" ..   1      1437.9   6.5122E-007     0.00  1.6078E-013     0.00      0.00     0.00
"LOAD.LOAD_LV_TRT9" ..   1      1866.8   8.4548E-007     0.00  2.4117E-013     0.00      0.00     0.00
"LOAD.LOAD_LV_TRT10" .   1      862.82   3.9077E-007     0.00  1.2711E-013     0.00      0.00     0.00
"LOAD.LOAD_LV_TRT11" .   1      857.81   3.885E-007     0.00  8.0389E-014     0.00      0.00     0.00
"LOAD.LOAD_LV_TRT12" .   1      1014.3   4.5936E-007     0.00  1.0248E-013     0.00      0.00     0.00
...